# Pinene
# Created by GaussView 6.0.16
#

#
#

@<TRIPOS>MOLECULE
Molecule Name
26 27
SMALL
NO_CHARGES


@<TRIPOS>ATOM
1 C1    -1.0939    -0.3406     0.2069 C
2 C2    -0.8969     1.1760    -0.2373 C
3 C3     0.1201    -0.6394    -0.7890 C
4 C4    -0.3277     0.6367    -1.6010 C
5 C5     0.2797     1.8364     0.5557 C
6 C6     1.4563    -0.2796    -0.0942 C
7 C7    -2.4438    -0.9323    -0.3137 C
8 C8    -0.9421    -0.7103     1.7123 C
9 C9     1.5135     0.9117     0.5286 C
10 C10     2.6199    -1.2746    -0.1632 C
11 H11    -1.7924     1.8225    -0.2625 H
12 H12     0.1463    -1.6163    -1.3023 H
13 H13     0.4760     1.2250    -2.0710 H
14 H14    -1.1164     0.4243    -2.3382 H
15 H15    -0.0243     2.0380     1.6005 H
16 H16     0.5285     2.8155     0.1025 H
17 H17    -3.2835    -0.5253     0.2713 H
18 H18    -2.4459    -2.0275    -0.1980 H
19 H19    -2.6173    -0.6976    -1.3729 H
20 H20    -1.0332    -1.7998     1.8427 H
21 H21    -1.7385    -0.2279     2.3004 H
22 H22     0.0305    -0.3940     2.1117 H
23 H23     2.4222     1.2576     1.0396 H
24 H24     2.8969    -1.4785    -1.2120 H
25 H25     2.3362    -2.2372     0.2962 H
26 H26     3.5042    -0.8834     0.3622 H
@<TRIPOS>BOND
1 1 2 1
2 1 3 1
3 1 7 1
4 1 8 1
5 2 4 1
6 2 5 1
7 2 11 1
8 3 4 1
9 3 6 1
10 3 12 1
11 4 13 1
12 4 14 1
13 5 9 1
14 5 15 1
15 5 16 1
16 6 9 2
17 6 10 1
18 7 17 1
19 7 18 1
20 7 19 1
21 8 20 1
22 8 21 1
23 8 22 1
24 9 23 1
25 10 24 1
26 10 25 1
27 10 26 1
