@<TRIPOS>MOLECULE
 
    5     4     1     0     0
SMALL
No Charge or Current Charge


@<TRIPOS>ATOM
      1 S           0.0000    0.0000   -0.0000 s6        0          1.542800
      2 O          -0.0000   -0.0000    1.4900 o         0         -0.885200
      3 O1         -1.2170    0.7020   -0.4970 o         0         -0.885200
      4 O2          1.2170    0.7020   -0.4970 o         0         -0.885200
      5 O3         -0.0000   -1.4050   -0.4970 o         0         -0.885200
@<TRIPOS>BOND
     1    1    2 1   
     2    1    3 1   
     3    1    4 1   
     4    1    5 1   
@<TRIPOS>SUBSTRUCTURE
     1             1 TEMP              0 ****  ****    0 ROOT
