@<TRIPOS>MOLECULE
 
    3     2     1     0     0
SMALL
No Charge or Current Charge


@<TRIPOS>ATOM
      1 O           2.5380    1.8730    0.0000 oh        0          0.000000
      2 H           3.4980    1.8730    0.0000 ho        0          0.000000
      3 H1          2.2170    2.7780    0.0000 ho        0          0.000000
@<TRIPOS>BOND
     1    1    2 1   
     2    1    3 1   
@<TRIPOS>SUBSTRUCTURE
     1             1 TEMP              0 ****  ****    0 ROOT
